17
E= -724.055120651 x= 0.76464 to_kcalmol= 627.509 Grad= 0.0276903842
C 1.647035 0.100047 1.418245
S 1.416539 0.011062 -0.395061
H 1.403452 1.100959 1.771616
H 2.685293 -0.144249 1.641214
N 0.611316 -1.353931 -0.828299
O -0.407818 -1.531213 -0.002573
H 0.965017 -0.629054 1.854229
C -2.704090 -0.517881 0.407298
C -1.348202 -0.018242 0.082230
C -0.586994 0.986381 -0.117428
C -0.491442 2.460995 -0.259295
H -2.652654 -1.180003 1.276385
H -3.111566 -1.098944 -0.424066
H -3.388535 0.302255 0.634942
H 0.272241 2.876263 0.405434
H -1.442241 2.948748 -0.026306
H -0.210645 2.731546 -1.281039
17
E= -724.063300984 x= 1.52964 to_kcalmol= 627.509 Grad= 0.0537944684
C 1.653447 0.099140 1.420604
S 1.393664 0.017687 -0.393643
H 1.420111 1.103207 1.773146
H 2.692245 -0.150925 1.634577
N 0.627669 -1.350381 -0.828273
O -0.445722 -1.492139 0.002728
H 0.971662 -0.624813 1.864543
C -2.693289 -0.507471 0.403796
C -1.304785 -0.070654 0.074588
C -0.546312 0.965123 -0.123427
C -0.500773 2.449023 -0.256220
H -2.659022 -1.166395 1.276228
H -3.114613 -1.082803 -0.424710
H -3.352199 0.333339 0.625898
H 0.254651 2.877256 0.409987
H -1.461446 2.915341 -0.020351
H -0.226357 2.730249 -1.276981
17
E= -724.07526047 x= 2.29345 to_kcalmol= 627.509 Grad= 0.064348837
C 1.660828 0.097609 1.422894
S 1.370537 0.027453 -0.391836
H 1.438998 1.104975 1.774659
H 2.699746 -0.159546 1.627538
N 0.643006 -1.349776 -0.826629
O -0.484899 -1.455709 0.006030
H 0.978949 -0.620318 1.875804
C -2.680319 -0.496011 0.400189
C -1.262433 -0.121168 0.068156
C -0.505599 0.942755 -0.130351
C -0.509093 2.434707 -0.253506
H -2.666437 -1.151210 1.275937
H -3.115464 -1.064339 -0.426116
H -3.312402 0.365646 0.615527
H 0.235739 2.877628 0.415355
H -1.480630 2.875349 -0.013840
H -0.242683 2.729936 -1.272622
17
E= -724.086806969 x= 3.0358 to_kcalmol= 627.509 Grad= 0.0549554291
C 1.670152 0.095891 1.424968
S 1.345029 0.041426 -0.389017
H 1.463410 1.106278 1.778313
H 2.708944 -0.171420 1.616379
N 0.656819 -1.352104 -0.821284
O -0.521224 -1.428806 0.004919
H 0.987773 -0.615117 1.887792
C -2.664019 -0.480625 0.396291
C -1.224813 -0.162623 0.063016
C -0.462754 0.917672 -0.139147
C -0.516655 2.415403 -0.250816
H -2.674080 -1.131065 1.275482
H -3.113223 -1.040210 -0.428563
H -3.267437 0.402530 0.603645
H 0.213257 2.876989 0.422171
H -1.501356 2.821905 -0.006131
H -0.261700 2.730016 -1.267260
17
E= -724.095007432 x= 3.72594 to_kcalmol= 627.509 Grad= 0.0403633209
C 1.682232 0.095084 1.426459
S 1.317702 0.058977 -0.384729
H 1.497502 1.107470 1.787042
H 2.720550 -0.187759 1.596710
N 0.669204 -1.356967 -0.811491
O -0.547896 -1.421388 -0.002677
H 0.998902 -0.608261 1.899672
C -2.646137 -0.457630 0.392439
C -1.198097 -0.186977 0.059422
C -0.420642 0.891998 -0.149921
C -0.523972 2.390407 -0.247623
H -2.680205 -1.102317 1.275057
H -3.109055 -1.007318 -0.431511
H -3.221009 0.445804 0.591747
H 0.186090 2.874002 0.431199
H -1.523758 2.753479 0.002258
H -0.283957 2.728347 -1.260374
17
E= -724.100795298 x= 4.43363 to_kcalmol= 627.509 Grad= 0.0248913685
C 1.698778 0.096869 1.427068
S 1.290431 0.077944 -0.378732
H 1.545250 1.110110 1.800309
H 2.735477 -0.208226 1.566353
N 0.683425 -1.363004 -0.797348
O -0.566131 -1.430863 -0.017633
H 1.014439 -0.597430 1.912410
C -2.629364 -0.422854 0.389068
C -1.179712 -0.202925 0.055158
C -0.385849 0.866870 -0.161431
C -0.533465 2.360235 -0.242842
H -2.687887 -1.059926 1.275793
H -3.110259 -0.961015 -0.432206
H -3.171840 0.501773 0.580919
H 0.153825 2.864855 0.443958
H -1.547522 2.678074 0.009486
H -0.307759 2.721364 -1.250958
17
E= -724.103837507 x= 5.00693 to_kcalmol= 627.509 Grad= 0.0145966812
C 1.717005 0.101516 1.426656
S 1.274507 0.090611 -0.373099
H 1.594939 1.116119 1.808291
H 2.750440 -0.225903 1.537993
N 0.697495 -1.368374 -0.783846
O -0.577001 -1.444781 -0.034738
H 1.031136 -0.581765 1.925582
C -2.620046 -0.386652 0.387183
C -1.171118 -0.216409 0.049233
C -0.370863 0.848380 -0.169084
C -0.546514 2.335682 -0.236680
H -2.701279 -1.013255 1.279471
H -3.123724 -0.911924 -0.428762
H -3.126403 0.559421 0.572341
H 0.123065 2.851870 0.458928
H -1.569976 2.623388 0.013557
H -0.326994 2.713153 -1.240209
17
E= -724.105768076 x= 5.55894 to_kcalmol= 627.509 Grad= 0.0088304384
C 1.739251 0.110331 1.425767
S 1.267621 0.097815 -0.367394
H 1.649600 1.128365 1.807681
H 2.767700 -0.239641 1.513410
N 0.711920 -1.374336 -0.770687
O -0.586587 -1.458837 -0.054096
H 1.051066 -0.557247 1.942557
C -2.616839 -0.349179 0.385707
C -1.168179 -0.230824 0.039973
C -0.366462 0.833067 -0.173865
C -0.565666 2.314961 -0.227846
H -2.720078 -0.961158 1.285887
H -3.148748 -0.859679 -0.421685
H -3.080669 0.620324 0.563364
H 0.086780 2.837987 0.478612
H -1.596706 2.578754 0.016251
H -0.346746 2.707035 -1.225847
17
E= -724.106891046 x= 6.04561 to_kcalmol= 627.509 Grad= 0.0058267805
C 1.762714 0.122967 1.424791
S 1.267082 0.099460 -0.362339
H 1.704153 1.147207 1.797026
H 2.785281 -0.248280 1.495690
N 0.722468 -1.380616 -0.759306
O -0.596129 -1.469500 -0.072111
H 1.071203 -0.524039 1.962951
C -2.617536 -0.318474 0.383042
C -1.169000 -0.241868 0.029426
C -0.365389 0.821737 -0.176173
C -0.586433 2.299728 -0.217160
H -2.735950 -0.916249 1.290683
H -3.173210 -0.817086 -0.415524
H -3.046867 0.667391 0.554195
H 0.047794 2.827757 0.501979
H -1.624919 2.542101 0.017814
H -0.364679 2.706158 -1.208753
17
E= -724.107515895 x= 6.45277 to_kcalmol= 627.509 Grad= 0.003889596
C 1.785248 0.138410 1.423219
S 1.268272 0.097915 -0.358340
H 1.756074 1.170331 1.777514
H 2.800994 -0.253041 1.483094
N 0.728049 -1.386679 -0.749569
O -0.605487 -1.476393 -0.086647
H 1.089892 -0.483986 1.984847
C -2.619699 -0.297642 0.377969
C -1.171030 -0.248932 0.019912
C -0.364223 0.813801 -0.176852
C -0.603486 2.288932 -0.205252
H -2.747851 -0.884792 1.291247
H -3.190428 -0.789005 -0.414287
H -3.026424 0.698569 0.543640
H 0.011867 2.819112 0.528455
H -1.648735 2.512525 0.017611
H -0.375364 2.709587 -1.189391
17
E= -724.10788925 x= 6.81804 to_kcalmol= 627.509 Grad= 0.0025730318
C 1.806988 0.156940 1.420158
S 1.269200 0.095018 -0.355580
H 1.806645 1.197192 1.751038
H 2.815287 -0.254613 1.472357
N 0.730000 -1.392749 -0.740231
O -0.614397 -1.481406 -0.097633
H 1.107767 -0.437460 2.006748
C -2.623170 -0.284763 0.369570
C -1.173757 -0.253557 0.012018
C -0.363507 0.807965 -0.176415
C -0.614814 2.281086 -0.191162
H -2.758970 -0.864426 1.286496
H -3.201028 -0.772512 -0.419664
H -3.016787 0.717462 0.529879
H -0.018478 2.808824 0.559887
H -1.666099 2.490518 0.016068
H -0.375018 2.716459 -1.166005
17
E= -724.10812632 x= 7.16628 to_kcalmol= 627.509 Grad= 0.001620914
C 1.827577 0.177544 1.415242
S 1.269526 0.091908 -0.354279
H 1.855553 1.225208 1.720755
H 2.827721 -0.254159 1.462221
N 0.729514 -1.398876 -0.730812
O -0.622202 -1.485362 -0.104642
H 1.124849 -0.387171 2.026260
C -2.628356 -0.278647 0.357525
C -1.177214 -0.257029 0.005948
C -0.364256 0.803538 -0.174926
C -0.619650 2.275587 -0.174785
H -2.772381 -0.853614 1.276222
H -3.206742 -0.765041 -0.432340
H -3.015405 0.727587 0.512450
H -0.041551 2.795823 0.595762
H -1.675865 2.477331 0.013785
H -0.362582 2.725527 -1.138417
17
E= -724.108272729 x= 7.50072 to_kcalmol= 627.509 Grad= 0.0013263914
C 1.846381 0.197888 1.409024
S 1.268557 0.089249 -0.354112
H 1.899559 1.251486 1.690527
H 2.839005 -0.251491 1.451924
N 0.728391 -1.404368 -0.721792
O -0.628041 -1.489365 -0.107844
H 1.141545 -0.339141 2.042339
C -2.634415 -0.277059 0.342574
C -1.180586 -0.259527 0.001976
C -0.364612 0.799695 -0.172776
C -0.619812 2.271847 -0.157421
H -2.787874 -0.850115 1.260948
H -3.207344 -0.762977 -0.451411
H -3.020278 0.730071 0.492544
H -0.058320 2.780903 0.632417
H -1.679715 2.471026 0.011704
H -0.342781 2.735666 -1.108798
17
E= -724.10836635 x= 7.88515 to_kcalmol= 627.509 Grad= 0.0008130746
C 1.866534 0.220022 1.400842
S 1.266992 0.087285 -0.354595
H 1.946033 1.278668 1.656164
H 2.850788 -0.247831 1.439873
N 0.727404 -1.409540 -0.712147
O -0.632993 -1.492837 -0.108858
H 1.160763 -0.287183 2.057240
C -2.641806 -0.278844 0.323132
C -1.184316 -0.263137 -0.001556
C -0.365712 0.795277 -0.169569
C -0.618770 2.267687 -0.136036
H -2.807383 -0.853334 1.238245
H -3.205369 -0.762305 -0.479036
H -3.028144 0.728296 0.470195
H -0.079743 2.761468 0.678878
H -1.682688 2.466250 0.006007
H -0.313673 2.747731 -1.070527
17
E= -724.108388741 x= 8.09091 to_kcalmol= 627.509 Grad= 0.0006020701
C 1.876361 0.231986 1.396391
S 1.266312 0.087455 -0.354995
H 1.967887 1.292717 1.638561
H 2.856597 -0.244371 1.433859
N 0.727848 -1.411542 -0.707844
O -0.633941 -1.495214 -0.109458
H 1.170739 -0.260789 2.063687
C -2.645411 -0.281638 0.312552
C -1.185768 -0.265782 -0.003486
C -0.367263 0.793282 -0.167516
C -0.619425 2.265378 -0.123530
H -2.817686 -0.858634 1.224932
H -3.203632 -0.762713 -0.494806
H -3.032374 0.725423 0.459614
H -0.093529 2.750188 0.705463
H -1.685321 2.463590 0.003087
H -0.298665 2.754583 -1.047913
17
E= -724.108393975 x= 8.19786 to_kcalmol= 627.509 Grad= 0.0003430093
C 1.880422 0.238260 1.394450
S 1.266028 0.088246 -0.355192
H 1.976966 1.300176 1.630514
H 2.859076 -0.241457 1.431375
N 0.729165 -1.411461 -0.706529
O -0.633599 -1.496326 -0.110502
H 1.174874 -0.248250 2.066634
C -2.646578 -0.285269 0.307318
C -1.185877 -0.268075 -0.004444
C -0.368213 0.792124 -0.166068
C -0.621279 2.263861 -0.116407
H -2.821602 -0.864582 1.217745
H -3.201924 -0.764643 -0.503073
H -3.034601 0.721214 0.455295
H -0.100882 2.744424 0.718422
H -1.688046 2.461120 0.004208
H -0.294802 2.757744 -1.036062
