17
/Users/talipovmr/ts.log	Energy: -452615.9909244
C          1.67945        0.05157        1.37449
S          1.47900       -0.04237       -0.43789
H          1.42545        1.04941        1.72820
H          2.71661       -0.18727        1.60793
N          0.63359       -1.40829       -0.86921
O         -0.33412       -1.61893       -0.04979
H          0.99698       -0.68227        1.80284
C         -2.67555       -0.57768        0.36970
C         -1.35341       -0.01580        0.04982
C         -0.59095        0.96012       -0.15303
C         -0.44214        2.42372       -0.30438
H         -2.60804       -1.24282        1.23518
H         -3.06811       -1.16405       -0.46512
H         -3.38568        0.22045        0.60192
H          0.32929        2.82525        0.35961
H         -1.38226        2.93319       -0.07429
H         -0.15479        2.68403       -1.32681
